<?xml version="1.0" encoding="UTF-8"?>

<!-- generated on Thu Dec 31 16:03:15 2020 by Eclipse SUMO Version 1.2.0
-->

<configuration xmlns:xsi="http://www.w3.org/2001/XMLSchema-instance" xsi:noNamespaceSchemaLocation="http://sumo.dlr.de/xsd/sumoConfiguration.xsd">

    <input>
        <net-file value="TuST_poli.net.xml"/>
        <route-files value="cars.rou.xml"/>
        <additional-files value="TAZ_file.taz.xml,TuSTVtype.xml"/>
    </input>

    <time>
        <begin value="0"/>
        <end value="30000"/>
        <step-length value="0.1"/>
    </time>

    <processing>
        <no-internal-links value="true"/>
        <ignore-junction-blocker value="5"/>
        <ignore-route-errors value="true"/>
        <time-to-teleport value="150"/>
    </processing>

    <report>
        <xml-validation value="never"/>
        <no-warnings value="true"/>
    </report>

    <mesoscopic>
        <mesosim value="true"/>
        <meso-junction-control.limited value="true"/>
        <meso-overtaking value="true"/>
    </mesoscopic>

    <random_number>
        <random value="true"/>
    </random_number>

</configuration>
