<additional>
<tazs>
    <taz id="100074" edges="-105283535#0 -105283535#1 -108329425#1 -108329425#2 -108329425#3 -108329425#4 -108329425#5 -108329425#6 -108329425#7 -108329426#1 -108329426#2 -108329427#0 -108329427#1 -130443630#1 -130443630#10 -130443630#11 -130443630#2 -130443630#3 -130443630#4 -130443630#5 -130443630#6 -130443630#7 -130443630#8 -130443630#9 -179692877#0 -179692877#1 -23182358#0 -23182484 -23315111#0 -23315111#1 -313087692 -313087693 -369518499#0 -369518499#1 -37973572#0 -37973572#1 -37973572#2 -405900728 -405900731#0 -405900731#1 -405900732#0 -405900732#1 -44104491#0 -44104491#1 -450274972 -466900336#0 -466900336#1 -572541277 -59159262#1 -59159262#3 -59159262#4 -59159262#5 -69931595#0 -69931595#1 -69931595#2 -69931595#3 -69931595#4 105251811#1 105251811#2 105283535#0 105283535#1 105283535#2 108329425#1 108329425#2 108329425#3 108329425#4 108329425#5 108329425#6 108329425#7 108329426#1 108329426#2 108329427#0 108329427#1 117492209#0 117492209#1 129780021#0 129780021#1 130443630#10 130443630#11 130443630#12 130443630#2 130443630#3 130443630#4 130443630#5 130443630#6 130443630#7 130443630#8 130443630#9 130443635#4 130443635#5 133868186#1 133960538#0 133960538#1 133960538#2 133960539#0 133960539#1 133960539#2 133960539#4 133960539#5 133960539#6 133960539#7 133960539#8 141190466#0 141190466#1 141190466#2 141190466#3 141190466#4 141190466#5 144874012#0 144874012#1 154500693#0 154500693#1 154500693#2 154500693#3 154500693#4 154500698 154500699#0 179692877#1 23182340#5 23182358#0 23182358#1 23182387#3 23182387#4 23182387#5 23182387#6 23182387#7 23182391 23315111#0 23315111#1 264213406#0 264213406#1 264213407#0 290005765#0 290005765#1 290005765#2 29176152 297173105 313087692 314683831 369518499#0 369518499#1 37351086#1 37449249#2 37638426#0 37638426#1 37942667#0 37942667#1 37942667#2 37942667#3 37942667#4 37942667#5 37942667#6 37942667#7 37942668#0 37942668#1 37973568#10 37973568#11 37973568#12 37973568#8 37973568#9 37973569#1 37973569#2 37973569#3 37973569#4 37973569#5 37973569#6 37973569#7 37973572#0 37973572#1 37973572#2 37973572#3 38230512#0 38230512#1 38230512#10 38230512#11 38230512#2 38230512#3 38230512#4 38230512#5 38230512#6 38230512#7 38230512#8 38230512#9 405900727#0 405900727#1 405900728 405900731#1 405900731#2 405900732#0 405900732#1 405900733#0 405900734#0 405900734#1 405900734#2 405900734#3 42976405#0 42976405#1 42976405#2 42976405#3 42976405#4 42976405#6 42976405#7 42976406#0 42976406#1 42976406#2 42976406#3 42976406#4 42976406#5 44104490 44104491#0 44104491#1 44641744#0 44641744#1 466900336#0 466900336#1 466900338#0 466900338#1 466900338#2 466900338#3 466900338#4 481168572 490747922#3 572541277 59159262#3 59159262#4 59159262#5 59159266#0 59159266#1 6502123#2 69931595#0 69931595#1 69931595#2 69931595#3 69931595#4 80376790#10 81394162#2 81394162#3 81672207#0 81672207#1 81672207#2 81672207#3 81672207#4 81672207#5 81672207#6 81672207#7"/>
    <taz id="100075" edges="-129780022#0 -129780022#1 -129780022#2 -129780022#3 -130443633#0 -130443633#1 -130443661#1 -23066446#0 -23066446#1 -371215544#0 -371215544#1 -398422088#0 -398422088#1 -425251864 -434329605 -450274974 -579988903 129780014#3 129780019#0 129780019#1 129780019#2 129780019#3 129780022#1 129780022#2 129780022#3 129780026 130443633#0 130443633#1 130443635#2 130443635#3 132323955#0 132323955#1 132323955#2 133960538#3 133960538#4 139118804 139118808 144874008#0 144874008#1 144874008#2 151167658#0 151167658#1 151167658#2 154409616#0 154409616#1 154409616#2 154500699#1 172498367 172498380 172498387#0 172498387#1 190048065 220847817#0 220847817#1 220847817#2 220847817#3 220847817#4 220847817#5 23066443#1 23066443#2 23066443#3 23066443#4 23066443#5 23066443#6 23066443#7 23066446#0 23066446#1 23066446#2 23182484 297173104 297173106#0 297173106#1 371194048#0 371194048#1 371194053#0 371194053#1 371194053#2 371211728 371211735#0 371211735#1 371211738#0 371211738#1 371211740#0 371211740#1 371215544#0 371215544#1 37449245#0 37449245#1 37449249#0 37449249#1 37449253#0 37449253#1 37449253#2 37449253#3 37449253#4 37449253#5 37449253#6 37771902#0 37771902#3 405900735#0 424703772 425251864 425251865#0 425251865#1 42976410#10 42976410#9 43019859 434329604#0 434329604#1 434329605 44738605#1 44738605#2 450274972 450274973 450274974 450274975#0 450274975#1 466900337#0 466900337#1 466900337#2 466900337#3 466900337#4 466900337#5 466900337#6 466900337#7 579988901#0 579988901#1 579988902#0 579988902#1 579988902#2 579988902#3 579988903 58770723#1 58770723#2 58770725#0 58770725#1 59159260#2 59159260#3 6502123#0 6502123#1 81096844#1 81096844#2 81096844#3 81096855#1 81394162#0 81394162#1 81523332#0 81523332#1 81523343"/>
    <taz id="100076" edges="-106833598 -106833599 -110514869#0 -110514869#1 -111981877#0 -111981877#1 -111981877#2 -129780024#0 -129780024#1 -129780024#2 -129780025#0 -129780025#1 -151212514#0 -151212514#1 -151212514#2 -151212514#3 -151212514#4 -151212524#0 -151212524#1 -151212524#2 -151212524#3 -154409621#0 -154409621#1 -154484171#0 -154484171#1 -154489990 -154844500 -154844503 -160587537#0 -160587537#1 -160587537#2 -160587542 -160600492 -160600493#1 -160600493#2 -160600493#3 -160600495#0 -160600495#1 -170594819#4 -23066446#2 -23066446#3 -23315053#0 -23315053#3 -23315053#4 -24615583#0 -24615583#1 -359388475#0 -359388475#1 -359388475#2 -359388475#3 -359388483#1 -360136478#0 -360136478#1 -360136478#2 -360136478#6 -360138094#0 -360138094#1 -360138094#2 -360138094#3 -360138094#4 -360138094#5 -360138094#6 -360138097#0 -360138097#1 -369518908#0 -369518908#1 -369518908#2 -37351087#0 -37351087#1 -38306583 -447699317#5 -447699317#6 -572714702#0 -572714702#1 -572748523#0 -572748523#1 -572748523#2 -572748523#3 -572748526 -81096832#0 -81096832#1 101272435#10 101272435#8 101272435#9 101332760#0 101332760#1 106833598 110514869#0 110514869#1 111981877#1 111981877#2 129780018#0 129780018#1 129780018#2 129780018#3 129780022#0 129780024#0 129780024#1 129780024#2 129780025#0 129780025#1 133868162#0 133868162#1 133868162#2 133868162#3 133868162#4 134417906 139118802#0 139118802#1 139118802#2 149862033#10 149862033#11 149862033#4 149862033#5 149862033#6 149862033#7 149862033#8 149862033#9 151212514#0 151212514#1 151212514#2 151212514#3 151212514#4 151212521#0 151212521#1 151212521#2 151212521#3 151212521#4 151212523 151212524#0 151212524#1 151212524#2 151212524#3 151212524#4 154409621#0 154409621#1 154484171#0 154484171#1 154484171#2 154489990 154844500 154844503 160587537#0 160587537#1 160587537#2 160587542 160600492 160600493#2 160600493#3 160600495#0 160600495#1 170594819#5 172498387#2 23066446#3 23182640#0 23182640#1 23182640#3 23315051 23315053#0 23315053#1 23315053#4 23315055#0 234282661#0 234282661#1 234282661#2 234282661#3 234282661#4 23800998#10 23800998#9 24615580#3 24615580#4 24615580#5 24615583#0 24615583#1 24615583#2 302238837#10 302238837#4 302238837#5 302238837#6 302238837#7 302238837#8 302238837#9 359388475#0 359388475#1 359388475#2 359388475#3 359388475#4 360134011 360134012#0 360134012#1 360136478#1 360136478#2 360136478#3 360136478#7 360138087 360138090#0 360138090#1 360138094#0 360138094#1 360138094#2 360138094#3 360138094#4 360138094#5 360138094#6 360138094#7 360138097#0 360138097#1 36927094#3 36927094#4 36927094#5 369518908#0 369518908#1 369518908#2 37351087#0 37351087#1 37640546#7 37640552#0 37640552#1 37771900 37771903 37771904#0 37771904#2 38306582#0 38306582#1 38306582#2 38306582#3 38306582#4 38306583 405900735#1 44738605#0 447492237 447699317#6 572714684#0 572714684#1 572714686#0 572714686#1 572714687#0 572714687#1 572714687#2 572714687#3 572714688#0 572714688#1 572714689#0 572714689#1 572714689#2 572714690 572714692 572714693#0 572714693#1 572714695 572714696#0 572714696#1 572714696#2 572714696#3 572714696#4 572714696#5 572714696#6 572714697#0 572714697#1 572714697#2 572714698#0 572714698#1 572714702#0 572714702#1 572714703#0 572714703#1 572748523#0 572748523#1 572748523#2 572748523#3 572748523#4 572748524#0 572748524#1 572748525#0 572748525#1 572748525#2 572748525#3 572748525#4 572748526 572748527#0 572748527#1 572748528#0 572748528#1 580542103#0 580542103#1 580542103#2 580542103#3 580542103#4 580542103#5 580542103#6 580542103#7 58770723#0 58770724 58770725#2 58770725#3 58770725#4 58770725#5 58770837#0 59159260#0 59159260#1 81096832#0 81096832#1 81096832#2 81096844#0 81096855#0 81096855#2 81096855#3 81096860 83051447#1"/>
	<taz id="100099" edges="-131584956#4 -149422195#1 -160587533#2 -160587538#0 -160587538#1 -160587538#2 -160587538#3 -23262356#2 -23262356#3 -23262356#4 -23262356#5 -23262356#6 -240482838 -369511961#5 -369511961#6 -369511961#7 -369511961#8 -369511961#9 -37772597#1 -40196941#0 -40196941#1 -40196941#2 -40196942 -40196944#0 -40196944#1 -40196944#2 -447699317#0 -447699317#1 -447699317#2 -447699317#3 -447699317#4 -447699318#0 -447699318#1 -447699318#2 -83051447#1 -83051483 101272424#0 101272424#1 101272424#2 101272424#3 101272424#4 101272424#5 101272426#0 101272426#1 101272429#0 101272429#1 101272429#2 101272429#3 101272431 101272435#0 101272435#1 101272435#2 101272435#3 101272435#4 101272435#5 101272435#6 149419435#1 149419435#2 149419435#3 149420179 149422195#1 149422199#0 149422211#0 149422211#1 151167659#0 151167659#1 151167659#2 154500706#0 154500706#3 154844461#0 154844461#1 154844461#2 154844461#3 154844462 154844463 154844465#0 154844465#1 154844465#2 154844465#3 154844465#4 154844470#0 154844470#1 154844473 154844477 154844478 154844479 154844481 154844482 154844484#0 154844484#1 154844486 154844487#0 154844487#1 154844489#0 154844489#1 154844489#2 160587538#0 160587538#1 160587538#2 160587538#3 160587545#0 160587545#1 160587545#2 160587545#3 160587545#5 160587552#0 160587552#1 173528288#0 173528288#1 173528288#2 173528288#3 173528288#4 173528288#5 23182589#0 23182589#1 23262356#3 23262356#4 23262356#5 23262356#6 23262356#7 234298683 234298684 23566901 23566902 240482838 240482839 24319547#0 24319547#1 24319558 24573905#0 24573905#1 24573905#2 24573905#3 24573930#0 24573930#1 24573930#2 24573930#3 24573930#4 24573930#5 24573937 313087693 369511961#6 369511961#7 369511961#8 369511961#9 37638470#0 37640550#10 37640550#11 37640550#12 37640550#3 37640550#4 37640550#5 37640550#6 37640550#7 37640550#8 37640550#9 37771902#1 37771902#2 37771904#1 37772595#4 37772595#5 37772595#6 37772596#0 37772596#1 37772596#2 37772596#3 37772596#4 37772597#2 378383744#0 378383744#1 379514443#1 379514443#2 379514449 379514452 37973569#0 40196941#1 40196941#2 40196942 40196943 40196944#0 40196944#1 40196944#2 42976407#1 42976408#0 42976408#1 42976410#0 42976410#1 42976410#2 42976410#3 42976410#4 42976410#5 42976410#6 42976410#7 43633786#1 447699317#0 447699317#1 447699317#2 447699317#3 447699317#4 447699317#5 447699318#0 447699318#1 447699318#2 499694884#3 499694884#4 499694884#5 499694884#6 499694884#7 58770833#0 58770833#1 58770836 58770837#1 58770837#2 81096816#0 81096816#1 81096816#2 81096816#3 81096816#4 81096816#5 81124942#16 81124942#17 81124945 8272412#0 8272412#1 8272412#2 8272412#3 8272412#4 8272412#5 8272412#6 83051420 83051483 94373194#0"/>
</tazs>
</additional>
