<?xml version="1.0" encoding="UTF-8"?>

<!-- generated on 2022-02-21 17:35:19 by Eclipse SUMO netedit Version 1.12.0
<configuration xmlns:xsi="http://www.w3.org/2001/XMLSchema-instance" xsi:noNamespaceSchemaLocation="http://sumo.dlr.de/xsd/netconvertConfiguration.xsd">

    <input>
        <sumo-net-file value="/home/riccardo/Scaricati/new2.net.xml"/>
    </input>

    <output>
        <output-file value="/home/riccardo/Scaricati/new2.net.xml"/>
        <output.street-names value="true"/>
    </output>

    <processing>
        <geometry.min-radius.fix.railways value="false"/>
        <geometry.max-grade.fix value="false"/>
        <offset.disable-normalization value="true"/>
        <lefthand value="false"/>
    </processing>

    <junctions>
        <no-internal-links value="true"/>
        <no-turnarounds value="true"/>
        <junctions.corner-detail value="5"/>
        <junctions.limit-turn-speed value="5.5"/>
        <rectangular-lane-cut value="false"/>
    </junctions>

    <pedestrian>
        <walkingareas value="false"/>
    </pedestrian>

    <report>
        <aggregate-warnings value="5"/>
    </report>

</configuration>
-->

<net version="1.1" junctionCornerDetail="5" limitTurnSpeed="5.50" xmlns:xsi="http://www.w3.org/2001/XMLSchema-instance" xsi:noNamespaceSchemaLocation="http://sumo.dlr.de/xsd/net_file.xsd">

    <location netOffset="-381673.30,-4978064.57" convBoundary="12147.64,11814.75,13806.02,13922.72" origBoundary="7.401856,44.910114,7.839383,45.247100" projParameter="+proj=utm +zone=32 +ellps=WGS84 +datum=WGS84 +units=m +no_defs"/>

    <type id="highway.living_street" priority="3" numLanes="1" speed="2.78" allow="passenger" oneway="1"/>
    <type id="highway.motorway" priority="13" numLanes="2" speed="44.44" allow="passenger" oneway="1"/>
    <type id="highway.motorway_link" priority="12" numLanes="1" speed="22.22" allow="passenger" oneway="1"/>
    <type id="highway.primary" priority="9" numLanes="2" speed="27.78" allow="passenger" oneway="1"/>
    <type id="highway.primary_link" priority="8" numLanes="1" speed="22.22" allow="passenger" oneway="1"/>
    <type id="highway.residential" priority="4" numLanes="1" speed="13.89" allow="passenger" oneway="1"/>
    <type id="highway.secondary" priority="7" numLanes="2" speed="27.78" allow="passenger" oneway="1"/>
    <type id="highway.secondary_link" priority="6" numLanes="1" speed="22.22" allow="passenger" oneway="1"/>
    <type id="highway.services" priority="1" numLanes="1" speed="8.33" allow="passenger" oneway="1"/>
    <type id="highway.tertiary" priority="6" numLanes="1" speed="22.22" allow="passenger" oneway="1"/>
    <type id="highway.tertiary_link" priority="5" numLanes="1" speed="22.22" allow="passenger" oneway="1"/>
    <type id="highway.track" priority="1" numLanes="1" speed="5.56" allow="passenger" oneway="1"/>
    <type id="highway.trunk" priority="11" numLanes="2" speed="27.78" allow="passenger" oneway="1"/>
    <type id="highway.trunk_link" priority="10" numLanes="1" speed="22.22" allow="passenger" oneway="1"/>
    <type id="highway.unclassified" priority="5" numLanes="1" speed="13.89" allow="passenger" oneway="1"/>
    <type id="highway.unsurfaced" priority="1" numLanes="1" speed="8.33" allow="passenger" oneway="1"/>

    <edge id="-105283535#0" from="2955499872" to="cluster_1212941099_733663076" name="Via Fratelli Bandiera" priority="5" type="highway.unclassified" shape="12485.89,13045.05 12593.34,13057.29">
        <lane id="-105283535#0_0" index="0" allow="passenger" speed="3.67" length="107.50" shape="12486.22,13043.48 12587.92,13055.06">
            <param key="origId" value="105283535"/>
        </lane>
    </edge>
    <edge id="-105283535#1" from="1213368991" to="2955499872" name="Via Fratelli Bandiera" priority="5" type="highway.unclassified">
        <lane id="-105283535#1_0" index="0" allow="passenger" speed="6.17" length="6.75" shape="12485.01,13043.34 12485.92,13043.44">
            <param key="origId" value="105283535"/>
        </lane>
    </edge>
    <edge id="-106833598" from="1228485915" to="1228485901" name="Via Sagliano Micca" priority="4" type="highway.residential" shape="13612.01,13319.04 13615.90,13326.58 13659.95,13411.98">
        <lane id="-106833598_0" index="0" allow="passenger" speed="3.77" length="104.58" shape="13616.01,13323.29 13617.32,13325.85 13659.97,13408.53">
            <param key="origId" value="106833598"/>
        </lane>
    </edge>
    <edge id="-106833599" from="1228485897" to="1228485912" name="Via Fratelli Savio" priority="4" type="highway.residential" shape="13696.44,13482.70 13699.71,13489.37 13720.21,13531.24 13722.98,13536.89">
        <lane id="-106833599_0" index="0" allow="passenger" speed="2.78" length="60.34" shape="13700.98,13488.33 13701.15,13488.67 13721.65,13530.54 13724.42,13536.19">
            <param key="origId" value="106833599"/>
        </lane>
    </edge>
    <edge id="-108329425#1" from="1212941051" to="cluster_1212941099_733663076" name="Via Pier Carlo Boggio" priority="5" type="highway.unclassified" shape="12582.06,13036.24 12588.57,13048.38">
        <lane id="-108329425#1_0" index="0" allow="passenger" speed="10.58" length="18.82" shape="12583.54,13035.62 12586.94,13041.95">
            <param key="origId" value="108329425"/>
        </lane>
    </edge>
    <edge id="-108329425#2" from="2016414185" to="1212941051" name="Via Pier Carlo Boggio" priority="5" type="highway.unclassified">
        <lane id="-108329425#2_0" index="0" allow="passenger" speed="8.45" length="16.56" shape="12575.77,13021.00 12583.40,13035.36">
            <param key="origId" value="108329425"/>
        </lane>
    </edge>
    <edge id="-108329425#3" from="1323557968" to="2016414185" name="Via Pier Carlo Boggio" priority="5" type="highway.unclassified">
        <lane id="-108329425#3_0" index="0" allow="passenger" speed="5.57" length="68.54" shape="12547.12,12964.96 12575.65,13020.76">
            <param key="origId" value="108329425"/>
        </lane>
    </edge>
    <edge id="-108329425#4" from="2929276931" to="1323557968" name="Via Pier Carlo Boggio" priority="5" type="highway.unclassified">
        <lane id="-108329425#4_0" index="0" allow="passenger" speed="8.91" length="10.16" shape="12539.94,12950.95 12542.01,12954.98">
            <param key="origId" value="108329425"/>
        </lane>
    </edge>
    <edge id="-108329425#5" from="2929276940" to="2929276931" name="Via Pier Carlo Boggio" priority="5" type="highway.unclassified">
        <lane id="-108329425#5_0" index="0" allow="passenger" speed="7.16" length="59.91" shape="12512.56,12897.50 12539.81,12950.69">
            <param key="origId" value="108329425"/>
        </lane>
    </edge>
    <edge id="-108329425#6" from="429179805" to="2929276940" name="Via Pier Carlo Boggio" priority="5" type="highway.unclassified">
        <lane id="-108329425#6_0" index="0" allow="passenger" speed="9.50" length="19.19" shape="12509.01,12890.55 12512.56,12897.50">
            <param key="origId" value="108329425"/>
        </lane>
    </edge>
    <edge id="-108329425#7" from="445506220" to="429179805" name="Via Pier Carlo Boggio" priority="5" type="highway.unclassified">
        <lane id="-108329425#7_0" index="0" allow="passenger" speed="9.34" length="19.54" shape="12500.59,12876.72 12501.20,12877.40">
            <param key="origId" value="108329425"/>
        </lane>
    </edge>
    <edge id="-108329426#1" from="1257054208" to="427996792" name="Via Paolo Borsellino" priority="5" type="highway.unclassified">
        <lane id="-108329426#1_0" index="0" allow="passenger" speed="4.22" length="10.95" shape="12811.66,13466.44 12814.14,13471.04">
            <param key="origId" value="108329426"/>
        </lane>
    </edge>
    <edge id="-108329426#2" from="445506216" to="1257054208" name="Via Paolo Borsellino" priority="5" type="highway.unclassified">
        <lane id="-108329426#2_0" index="0" allow="passenger" speed="4.64" length="183.75" shape="12728.27,13310.67 12811.52,13466.18">
            <param key="origId" value="108329426"/>
        </lane>
    </edge>
    <edge id="-108329427#0" from="1263725264" to="427996792" name="Via Paolo Borsellino" priority="5" type="highway.unclassified" shape="12821.30,13485.41 12819.86,13483.34 12815.38,13476.71">
        <lane id="-108329427#0_0" index="0" allow="passenger" speed="9.60" length="10.52" shape="12819.90,13486.20 12818.54,13484.24 12817.36,13482.50">
            <param key="origId" value="108329427"/>
        </lane>
    </edge>
    <edge id="-108329427#1" from="1263725266" to="1263725264" name="Via Paolo Borsellino" priority="5" type="highway.unclassified" shape="12827.27,13491.01 12826.63,13490.81 12823.42,13488.44 12821.30,13485.41">
        <lane id="-108329427#1_0" index="0" allow="passenger" speed="5.76" length="13.39" shape="12819.11,13484.62 12818.98,13484.47">
            <param key="origId" value="108329427"/>
        </lane>
    </edge>
    <edge id="-110514869#0" from="252417189" to="1261880295" name="Corso Stati Uniti" priority="6" type="highway.tertiary">
        <lane id="-110514869#0_0" index="0" allow="passenger" speed="10.16" length="70.89" shape="13100.79,13024.71 13045.74,13053.46">
            <param key="origId" value="110514869"/>
        </lane>
        <lane id="-110514869#0_1" index="1" allow="passenger" speed="10.16" length="70.89" shape="13099.30,13021.87 13044.26,13050.62">
            <param key="origId" value="110514869"/>
        </lane>
    </edge>
    <edge id="-110514869#1" from="443089063" to="252417189" name="Corso Stati Uniti" priority="6" type="highway.tertiary" shape="13175.11,12980.50 13165.41,12985.56 13103.55,13017.85">
        <lane id="-110514869#1_0" index="0" allow="passenger" speed="12.87" length="80.72" shape="13172.35,12987.35 13167.63,12989.82 13110.76,13019.50">
            <param key="origId" value="110514869"/>
        </lane>
        <lane id="-110514869#1_1" index="1" allow="passenger" speed="12.87" length="80.72" shape="13170.87,12984.52 13166.15,12986.98 13109.28,13016.67">
            <param key="origId" value="110514869"/>
        </lane>
    </edge>
    <edge id="-111981877#0" from="252417396" to="1274135262" name="Via Magenta" priority="4" type="highway.residential" shape="13523.10,13013.42 13538.33,13005.27 13575.29,12985.48">
        <lane id="-111981877#0_0" index="0" allow="passenger" speed="4.97" length="59.20" shape="13527.34,13009.34 13537.57,13003.86 13574.53,12984.07">
            <param key="origId" value="111981877"/>
        </lane>
    </edge>
    <edge id="-111981877#1" from="252417397" to="252417396" name="Via Magenta" priority="4" type="highway.residential" shape="13410.61,13073.24 13427.33,13064.35 13509.30,13020.76 13523.10,13013.42">
        <lane id="-111981877#1_0" index="0" allow="passenger" speed="3.50" length="127.41" shape="13414.85,13069.17 13426.58,13062.94 13508.55,13019.35 13517.36,13014.66">
            <param key="origId" value="111981877"/>
        </lane>
    </edge>
    <edge id="-111981877#2" from="441266882" to="252417397" name="Via Magenta" priority="4" type="highway.residential" shape="13301.62,13128.09 13307.30,13125.19 13399.05,13079.43 13410.61,13073.24">
        <lane id="-111981877#2_0" index="0" allow="passenger" speed="6.88" length="122.02" shape="13305.82,13124.15 13306.58,13123.76 13398.32,13078.01 13404.86,13074.51">
            <param key="origId" value="111981877"/>
        </lane>
    </edge>
    <edge id="-129780022#0" from="5736659510" to="248913124" name="Corso Vittorio Emanuele II" priority="9" type="highway.primary">
        <lane id="-129780022#0_0" index="0" allow="passenger" speed="9.23" length="61.81" shape="13106.77,13336.27 13156.35,13310.16">
            <param key="origId" value="129780022"/>
        </lane>
        <lane id="-129780022#0_1" index="1" allow="passenger" speed="9.23" length="61.81" shape="13108.26,13339.10 13157.84,13312.99">
            <param key="origId" value="129780022"/>
        </lane>
    </edge>
    <edge id="-129780022#1" from="1257054205" to="5736659510" name="Corso Vittorio Emanuele II" priority="9" type="highway.primary">
        <lane id="-129780022#1_0" index="0" allow="passenger" speed="11.58" length="6.73" shape="13100.81,13339.41 13106.50,13336.41">
            <param key="origId" value="129780022"/>
        </lane>
        <lane id="-129780022#1_1" index="1" allow="passenger" speed="11.58" length="6.73" shape="13102.31,13342.24 13107.99,13339.24">
            <param key="origId" value="129780022"/>
        </lane>
    </edge>
    <edge id="-129780022#2" from="13929747" to="1257054205" name="Corso Vittorio Emanuele II" priority="9" type="highway.primary">
        <lane id="-129780022#2_0" index="0" allow="passenger" speed="15.85" length="12.57" shape="13094.59,13342.70 13100.55,13339.56">
            <param key="origId" value="129780022"/>
        </lane>
        <lane id="-129780022#2_1" index="1" allow="passenger" speed="15.85" length="12.57" shape="13096.09,13345.53 13102.04,13342.39">
            <param key="origId" value="129780022"/>
        </lane>
    </edge>
    <edge id="-129780022#3" from="4430879470" to="13929747" name="Corso Vittorio Emanuele II" priority="9" type="highway.primary">
        <lane id="-129780022#3_0" index="0" allow="passenger" speed="14.63" length="18.48" shape="13079.85,13350.60 13084.62,13348.03">
            <param key="origId" value="129780022"/>
        </lane>
        <lane id="-129780022#3_1" index="1" allow="passenger" speed="14.63" length="18.48" shape="13081.37,13353.42 13086.14,13350.84">
            <param key="origId" value="129780022"/>
        </lane>
    </edge>
    <edge id="-129780024#0" from="442330095" to="945146434" name="Via Gaspare Gozzi" priority="4" type="highway.residential" shape="13364.25,13589.63 13325.99,13608.90 13319.61,13612.11">
        <lane id="-129780024#0_0" index="0" allow="passenger" speed="4.43" length="49.98" shape="13361.42,13592.85 13326.71,13610.33 13325.38,13611.00">
            <param key="origId" value="129780024"/>
        </lane>
    </edge>
    <edge id="-129780024#1" from="1169944014" to="442330095" name="Via Gaspare Gozzi" priority="4" type="highway.residential">
        <lane id="-129780024#1_0" index="0" allow="passenger" speed="3.32" length="31.86" shape="13388.36,13579.20 13371.30,13587.85">
            <param key="origId" value="129780024"/>
        </lane>
    </edge>
    <edge id="-129780024#2" from="443101933" to="1169944014" name="Via Gaspare Gozzi" priority="4" type="highway.residential">
        <lane id="-129780024#2_0" index="0" allow="passenger" speed="3.00" length="81.88" shape="13460.70,13540.73 13398.38,13573.98">
            <param key="origId" value="129780024"/>
        </lane>
    </edge>
    <edge id="-129780025#0" from="1169943931" to="945146406" name="Via Giuseppe Giusti" priority="4" type="highway.residential" shape="13361.81,13515.93 13295.61,13551.46 13289.49,13554.74">
        <lane id="-129780025#0_0" index="0" allow="passenger" speed="7.20" length="82.08" shape="13357.60,13520.01 13296.37,13552.87 13295.23,13553.48">
            <param key="origId" value="129780025"/>
        </lane>
    </edge>
    <edge id="-129780025#1" from="443101934" to="1169943931" name="Via Giuseppe Giusti" priority="4" type="highway.residential">
        <lane id="-129780025#1_0" index="0" allow="passenger" speed="6.02" length="82.79" shape="13430.52,13480.90 13367.54,13514.67">
            <param key="origId" value="129780025"/>
        </lane>
    </edge>
    <edge id="-130443630#1" from="445506220" to="2929276941" name="Corso Francesco Ferrucci" priority="6" type="highway.tertiary">
        <lane id="-130443630#1_0" index="0" allow="passenger" speed="8.34" length="159.91" shape="12492.18,12880.64 12470.74,13025.44">
            <param key="origId" value="130443630"/>
        </lane>
        <lane id="-130443630#1_1" index="1" allow="passenger" speed="8.34" length="159.91" shape="12489.01,12880.17 12467.57,13024.97">
            <param key="origId" value="130443630"/>
        </lane>
    </edge>
    <edge id="-130443630#10" from="446017741" to="950640411" name="Corso Francesco Ferrucci" priority="6" type="highway.tertiary">
        <lane id="-130443630#10_0" index="0" allow="passenger" speed="10.77" length="8.74" shape="12525.04,12650.43 12524.51,12655.10">
            <param key="origId" value="130443630"/>
        </lane>
        <lane id="-130443630#10_1" index="1" allow="passenger" speed="10.77" length="8.74" shape="12521.86,12650.07 12521.33,12654.73">
            <param key="origId" value="130443630"/>
        </lane>
    </edge>
    <edge id="-130443630#11" from="2955495974" to="446017741" name="Corso Francesco Ferrucci" priority="6" type="highway.tertiary">
        <lane id="-130443630#11_0" index="0" allow="passenger" speed="7.23" length="9.66" shape="12526.77,12638.11 12526.74,12638.31">
            <param key="origId" value="130443630"/>
        </lane>
        <lane id="-130443630#11_1" index="1" allow="passenger" speed="7.23" length="9.66" shape="12523.60,12637.63 12523.57,12637.83">
            <param key="origId" value="130443630"/>
        </lane>
    </edge>
    <edge id="-130443630#2" from="966097869" to="445506220" name="Corso Francesco Ferrucci" priority="6" type="highway.tertiary">
        <lane id="-130443630#2_0" index="0" allow="passenger" speed="14.00" length="26.70" shape="12498.04,12840.83 12494.57,12864.47">
            <param key="origId" value="130443630"/>
        </lane>
        <lane id="-130443630#2_1" index="1" allow="passenger" speed="14.00" length="26.70" shape="12494.87,12840.36 12491.40,12864.01">
            <param key="origId" value="130443630"/>
        </lane>
    </edge>
    <edge id="-130443630#3" from="1634988377" to="966097869" name="Corso Francesco Ferrucci" priority="6" type="highway.tertiary">
        <lane id="-130443630#3_0" index="0" allow="passenger" speed="8.64" length="10.53" shape="12499.55,12830.56 12498.04,12840.83">
            <param key="origId" value="130443630"/>
        </lane>
        <lane id="-130443630#3_1" index="1" allow="passenger" speed="8.64" length="10.53" shape="12496.38,12830.09 12494.87,12840.36">
            <param key="origId" value="130443630"/>
        </lane>
    </edge>
    <edge id="-130443630#4" from="1726380194" to="1634988377" name="Corso Francesco Ferrucci" priority="6" type="highway.tertiary">
        <lane id="-130443630#4_0" index="0" allow="passenger" speed="18.64" length="17.76" shape="12502.14,12812.99 12499.59,12830.26">
            <param key="origId" value="130443630"/>
        </lane>
        <lane id="-130443630#4_1" index="1" allow="passenger" speed="18.64" length="17.76" shape="12498.97,12812.52 12496.42,12829.79">
            <param key="origId" value="130443630"/>
        </lane>
    </edge>
    <edge id="-130443630#5" from="2955495984" to="1726380194" name="Corso Francesco Ferrucci" priority="6" type="highway.tertiary">
        <lane id="-130443630#5_0" index="0" allow="passenger" speed="9.10" length="116.17" shape="12519.01,12698.05 12502.18,12812.69">
            <param key="origId" value="130443630"/>
        </lane>
        <lane id="-130443630#5_1" index="1" allow="passenger" speed="9.10" length="116.17" shape="12515.84,12697.58 12499.01,12812.22">
            <param key="origId" value="130443630"/>
        </lane>
    </edge>
    <edge id="-130443630#6" from="446017744" to="2955495984" name="Corso Francesco Ferrucci" priority="6" type="highway.tertiary">
        <lane id="-130443630#6_0" index="0" allow="passenger" speed="10.38" length="11.22" shape="12519.02,12697.99 12518.99,12698.18">
            <param key="origId" value="130443630"/>
        </lane>
        <lane id="-130443630#6_1" index="1" allow="passenger" speed="10.38" length="11.22" shape="12515.85,12697.52 12515.82,12697.72">
            <param key="origId" value="130443630"/>
        </lane>
    </edge>
    <edge id="-130443630#7" from="950640413" to="446017744" name="Corso Francesco Ferrucci" priority="6" type="highway.tertiary">
        <lane id="-130443630#7_0" index="0" allow="passenger" speed="11.00" length="10.86" shape="12521.97,12677.27 12521.94,12677.47">
            <param key="origId" value="130443630"/>
        </lane>
        <lane id="-130443630#7_1" index="1" allow="passenger" speed="11.00" length="10.86" shape="12518.80,12676.83 12518.77,12677.03">
            <param key="origId" value="130443630"/>
        </lane>
    </edge>
    <edge id="-130443630#8" from="30406599" to="950640413" name="Corso Francesco Ferrucci" priority="6" type="highway.tertiary">
        <lane id="-130443630#8_0" index="0" allow="passenger" speed="11.39" length="16.91" shape="12521.56,12680.71 12521.54,12680.91">
            <param key="origId" value="130443630"/>
        </lane>
        <lane id="-130443630#8_1" index="1" allow="passenger" speed="11.39" length="16.91" shape="12518.38,12680.35 12518.36,12680.55">
            <param key="origId" value="130443630"/>
        </lane>
    </edge>
    <edge id="-130443630#9" from="950640411" to="30406599" name="Corso Francesco Ferrucci" priority="6" type="highway.tertiary">
        <lane id="-130443630#9_0" index="0" allow="passenger" speed="9.88" length="16.68" shape="12524.76,12652.93 12524.73,12653.12">
            <param key="origId" value="130443630"/>
        </lane>
        <lane id="-130443630#9_1" index="1" allow="passenger" speed="9.88" length="16.68" shape="12521.58,12652.56 12521.55,12652.76">
            <param key="origId" value="130443630"/>
        </lane>
    </edge>
    <edge id="-130443633#0" from="4397227053" to="3747997549" name="Via Duchessa Jolanda" priority="4" type="highway.residential">
        <lane id="-130443633#0_0" index="0" allow="passenger" speed="4.13" length="3.23" shape="13324.85,13814.80 13325.03,13814.72">
            <param key="origId" value="130443633"/>
        </lane>
    </edge>
    <edge id="-130443633#1" from="3747997545" to="4397227053" name="Via Duchessa Jolanda" priority="4" type="highway.residential">
        <lane id="-130443633#1_0" index="0" allow="passenger" speed="3.88" length="12.09" shape="13322.36,13815.98 13325.08,13814.70">
            <param key="origId" value="130443633"/>
        </lane>
    </edge>
    <edge id="-130443661#1" from="320879175" to="452412511" name="Via Duchessa Jolanda" priority="4" type="highway.residential">
        <lane id="-130443661#1_0" index="0" allow="passenger" speed="6.23" length="13.84" shape="13287.22,13836.56 13287.04,13836.65">
            <param key="origId" value="130443661"/>
        </lane>
    </edge>
    <edge id="-131584956#4" from="3799075126" to="552391487" name="Via Francesco Millio" priority="4" type="highway.residential">
        <lane id="-131584956#4_0" index="0" allow="passenger" speed="5.42" length="152.04" shape="12279.34,12125.24 12148.45,12202.60">
            <param key="origId" value="131584956"/>
        </lane>
    </edge>
    <edge id="-149422195#1" from="cluster_13990611_255227468" to="cluster_255227472_255227478" name="Via Giuseppe Piazzi" priority="4" type="highway.residential" shape="12983.53,12130.51 13003.75,12174.85">
        <lane id="-149422195#1_0" index="0" allow="passenger" speed="2.82" length="68.11" shape="12987.97,12136.39 12999.62,12161.95">
            <param key="origId" value="149422195"/>
        </lane>
    </edge>
    <edge id="-151212514#0" from="2188327222" to="267585632" priority="5" type="highway.unclassified">
        <lane id="-151212514#0_0" index="0" allow="passenger" speed="9.44" length="10.60" shape="13486.61,13502.87 13490.87,13500.56">
            <param key="origId" value="151212514"/>
        </lane>
    </edge>
    <edge id="-151212514#1" from="2188327223" to="2188327222" priority="5" type="highway.unclassified">
        <lane id="-151212514#1_0" index="0" allow="passenger" speed="10.03" length="4.87" shape="13482.32,13505.18 13486.35,13503.01">
            <param key="origId" value="151212514"/>
        </lane>
    </edge>
    <edge id="-151212514#2" from="945146298" to="2188327223" priority="5" type="highway.unclassified">
        <lane id="-151212514#2_0" index="0" allow="passenger" speed="12.58" length="10.47" shape="13483.82,13504.37 13483.99,13504.28">
            <param key="origId" value="151212514"/>
        </lane>
    </edge>
    <edge id="-151212514#3" from="2188327224" to="945146298" priority="5" type="highway.unclassified">
        <lane id="-151212514#3_0" index="0" allow="passenger" speed="10.13" length="9.31" shape="13469.68,13512.00 13469.85,13511.91">
            <param key="origId" value="151212514"/>
        </lane>
    </edge>
    <edge id="-151212514#4" from="443101933" to="2188327224" priority="5" type="highway.unclassified">
        <lane id="-151212514#4_0" index="0" allow="passenger" speed="9.57" length="24.90" shape="13466.06,13526.77 13469.81,13513.58">
            <param key="origId" value="151212514"/>
        </lane>
    </edge>
    <edge id="-151212524#0" from="2188327226" to="443101932" priority="5" type="highway.unclassified">
        <lane id="-151212524#0_0" index="0" allow="passenger" speed="7.58" length="17.11" shape="13508.71,13583.51 13498.51,13588.64">
            <param key="origId" value="151212524"/>
        </lane>
    </edge>
    <edge id="-151212524#1" from="252418673" to="2188327226" priority="5" type="highway.unclassified">
        <lane id="-151212524#1_0" index="0" allow="passenger" speed="9.41" length="10.48" shape="13506.96,13584.39 13506.78,13584.48">
            <param key="origId" value="151212524"/>
        </lane>
    </edge>
    <edge id="-151212524#2" from="2188327225" to="252418673" priority="5" type="highway.unclassified">
        <lane id="-151212524#2_0" index="0" allow="passenger" speed="8.14" length="10.49" shape="13521.74,13576.93 13521.56,13577.02">
            <param key="origId" value="151212524"/>
        </lane>
    </edge>
    <edge id="-151212524#3" from="2188326427" to="2188327225" priority="5" type="highway.unclassified">
        <lane id="-151212524#3_0" index="0" allow="passenger" speed="7.19" length="4.81" shape="13523.00,13576.28 13520.18,13577.72">
            <param key="origId" value="151212524"/>
        </lane>
    </edge>
    <edge id="-154409621#0" from="5736908269" to="566579340" name="Corso Vittorio Emanuele II" priority="9" type="highway.primary" shape="13290.57,13245.18 13294.97,13242.87 13307.55,13236.28">
        <lane id="-154409621#0_0" index="0" allow="passenger" speed="18.85" length="19.17" shape="13288.47,13240.86 13292.74,13238.62 13300.42,13234.59">
            <param key="origId" value="154409621"/>
        </lane>
        <lane id="-154409621#0_1" index="1" allow="passenger" speed="18.85" length="19.17" shape="13289.96,13243.69 13294.23,13241.45 13301.91,13237.43">
            <param key="origId" value="154409621"/>
        </lane>
    </edge>
    <edge id="-154409621#1" from="248913124" to="5736908269" name="Corso Vittorio Emanuele II" priority="9" type="highway.primary">
        <lane id="-154409621#1_0" index="0" allow="passenger" speed="11.46" length="143.42" shape="13166.30,13304.93 13288.21,13241.00">
            <param key="origId" value="154409621"/>
        </lane>
        <lane id="-154409621#1_1" index="1" allow="passenger" speed="11.46" length="143.42" shape="13167.78,13307.77 13289.69,13243.83">
            <param key="origId" value="154409621"/>
        </lane>
    </edge>
    <edge id="-154484171#0" from="945146298" to="246650764" name="Corso Vinzaglio" priority="7" type="highway.secondary" shape="13477.34,13509.69 13431.42,13423.33 13426.89,13415.48">
        <lane id="-154484171#0_0" index="0" allow="passenger" speed="15.39" length="106.87" shape="13469.70,13505.55 13427.22,13425.66 13425.67,13422.97">
            <param key="origId" value="154484171"/>
        </lane>
        <lane id="-154484171#0_1" index="1" allow="passenger" speed="15.39" length="106.87" shape="13472.53,13504.05 13430.02,13424.11 13428.44,13421.37">
            <param key="origId" value="154484171"/>
        </lane>
    </edge>
    <edge id="-154484171#1" from="252418673" to="945146298" name="Corso Vinzaglio" priority="7" type="highway.secondary">
        <lane id="-154484171#1_0" index="0" allow="passenger" speed="11.96" length="78.43" shape="13505.75,13575.12 13476.43,13518.39">
            <param key="origId" value="154484171"/>
        </lane>
        <lane id="-154484171#1_1" index="1" allow="passenger" speed="11.96" length="78.43" shape="13508.59,13573.65 13479.28,13516.92">
            <param key="origId" value="154484171"/>
        </lane>
    </edge>
    <edge id="-154489990" from="452446338" to="1670156969" name="Corso Vinzaglio" priority="7" type="highway.secondary">
        <lane id="-154489990_0" index="0" allow="passenger" speed="10.33" length="10.62" shape="13327.98,13237.31 13325.65,13232.89">
            <param key="origId" value="154489990"/>
        </lane>
        <lane id="-154489990_1" index="1" allow="passenger" speed="10.33" length="10.62" shape="13330.82,13235.82 13328.48,13231.40">
            <param key="origId" value="154489990"/>
        </lane>
    </edge>
    <edge id="-154844500" from="441266880" to="1669480281" name="Corso Stati Uniti" priority="6" type="highway.tertiary">
        <lane id="-154844500_0" index="0" allow="passenger" speed="15.76" length="15.16" shape="13209.43,12967.99 13201.11,12972.34">
            <param key="origId" value="154844500"/>
        </lane>
        <lane id="-154844500_1" index="1" allow="passenger" speed="15.76" length="15.16" shape="13207.95,12965.15 13199.62,12969.50">
            <param key="origId" value="154844500"/>
        </lane>
    </edge>
    <edge id="-154844503" from="1726394726" to="1669480282" name="Corso Stati Uniti" priority="6" type="highway.tertiary">
        <lane id="-154844503_0" index="0" allow="passenger" speed="15.24" length="10.52" shape="13188.53,12978.90 13188.35,12978.99">